OPT_V8/My_Campus_24/powerflow_results_t4.txt
Pandapower Network Debug Info
==================================================

BUS:
       vm_pu  va_degree      p_mw    q_mvar
0   0.993079   0.112192  0.000994  0.001068
1   0.988654   0.172685  0.001458  0.001656
2   0.984404   0.238324  0.002278  0.003009
3   0.989525   0.193296  0.002265  0.003849
4   0.988030   0.276056  0.003310  0.005806
5   0.992377   0.117114  0.003336  0.005007
6   0.990421   0.126308  0.001296  0.001192
7   0.997319   0.018935  0.002040  0.002047
8   0.997690   0.047958  0.001889  0.002982
9   0.999889   0.001109  0.010952  0.011727
10  0.999877   0.001207  0.009342  0.009055
11  0.999868   0.001296  0.009752  0.010777
12  0.999777   0.001134  0.010845  0.005976
13  0.999753   0.001248  0.010089  0.008698
14  0.999761   0.001225  0.013580  0.011096
15  0.999931   0.000749  0.000000  0.000000
16  0.999931   0.000755  0.000000  0.000000
17  0.999783   0.001183  0.000000  0.000000
18  0.999782   0.001193  0.000000  0.000000
19  1.000000   0.000000 -0.037181 -0.046236
20  1.000000   0.000006  0.000000  0.000000
21  1.000000   0.000000 -0.046545 -0.047915
22  1.000000   0.000007  0.000000  0.000000
--------------------------------------------------

LINE:
    p_from_mw  q_from_mvar   p_to_mw  q_to_mvar         pl_mw       ql_mvar  i_from_ka   i_to_ka      i_ka  vm_from_pu  va_from_degree  vm_to_pu  va_to_degree  loading_percent
0    0.037171     0.042236 -0.037167  -0.042233  3.096276e-06  2.414217e-06   0.002166  0.002166  0.002166    1.000000        0.000006  0.999931      0.000749         0.941545
1    0.046535     0.043915 -0.046524  -0.043906  1.101234e-05  8.586503e-06   0.002463  0.002463  0.002463    1.000000        0.000007  0.999783      0.001183         1.070766
2    0.030047     0.031560 -0.030046  -0.031559  1.468574e-06  1.145071e-06   0.001677  0.001677  0.001677    0.999931        0.000749  0.999889      0.001109         0.729288
3    0.010845     0.005976 -0.010845  -0.005976  5.304909e-08  4.136325e-08   0.000477  0.000477  0.000477    0.999783        0.001183  0.999777      0.001134         0.207268
4    0.023669     0.019795 -0.023668  -0.019794  5.207944e-07  4.060720e-07   0.001188  0.001188  0.001188    0.999783        0.001183  0.999761      0.001225         0.516466
5    0.007110     0.009673 -0.007043  -0.009621  6.741961e-05  5.256818e-05   0.017329  0.017329  0.017329    0.999931        0.000755  0.993079      0.112192         7.534448
6    0.004682     0.006238 -0.004635  -0.006201  4.721299e-05  3.681275e-05   0.011260  0.011260  0.011260    0.999782        0.001193  0.992377      0.117114         4.895562
7    0.002045     0.002052 -0.002040  -0.002047  5.672832e-06  4.423200e-06   0.004182  0.004182  0.004182    0.999782        0.001193  0.997319      0.018935         1.818463
8    0.005273     0.008846 -0.005255  -0.008832  1.824354e-05  1.422479e-05   0.014868  0.014868  0.014868    0.999782        0.001193  0.997690      0.047958         6.464289
9   -0.019094    -0.019832  0.019094   0.019832  2.621565e-07  2.044077e-07   0.001060  0.001060  0.001060    0.999877        0.001207  0.999889      0.001109         0.460759
10  -0.009752    -0.010777  0.009752   0.010777  1.033345e-07  8.057158e-08   0.000559  0.000559  0.000559    0.999868        0.001296  0.999877      0.001207         0.243253
11   0.010089     0.008698 -0.010089  -0.008698  8.682244e-08  6.769688e-08   0.000513  0.000513  0.000513    0.999761        0.001225  0.999753      0.001248         0.222973
12  -0.003749    -0.004675  0.003771   0.004692  2.173633e-05  1.694818e-05   0.008749  0.008749  0.008749    0.988654        0.172685  0.993079      0.112192         3.803833
13  -0.002265    -0.003849  0.002279   0.003860  1.360274e-05  1.060628e-05   0.006515  0.006515  0.006515    0.989525        0.193296  0.993079      0.112192         2.832560
14  -0.002278    -0.003009  0.002291   0.003019  1.329444e-05  1.036589e-05   0.005533  0.005533  0.005533    0.984404        0.238324  0.988654      0.172685         2.405801
15   0.003366     0.005850 -0.003310  -0.005806  5.567635e-05  4.341177e-05   0.009764  0.009764  0.009764    0.997690        0.047958  0.988030      0.276056         4.245077
16  -0.001296    -0.001192  0.001299   0.001194  2.751084e-06  2.145065e-06   0.002566  0.002566  0.002566    0.990421        0.126308  0.992377      0.117114         1.115549
--------------------------------------------------

TRAFO:
    p_hv_mw  q_hv_mvar   p_lv_mw  q_lv_mvar    pl_mw  ql_mvar   i_hv_ka   i_lv_ka  vm_hv_pu  va_hv_degree  vm_lv_pu  va_lv_degree  loading_percent
0  0.007120   0.010673 -0.007110  -0.009673  0.00001    0.001  0.000494  0.017329  0.999931      0.000749  0.999931      0.000755         0.128309
1  0.012010   0.018135 -0.012000  -0.017136  0.00001    0.001  0.000837  0.030202  0.999783      0.001183  0.999782      0.001193         0.217563
2  0.037181   0.046236 -0.037171  -0.042236  0.00001    0.004  0.000489  0.002166  1.000000      0.000000  1.000000      0.000006         0.148327
3  0.046545   0.047915 -0.046535  -0.043915  0.00001    0.004  0.000551  0.002463  1.000000      0.000000  1.000000      0.000007         0.167000
--------------------------------------------------
